Circuit: * C:\Users\ymele\Documents\flexil-elk\elk\files\spice\Draft_nMos-Schaltung_auf_Spice.asc

Instance "m:m1:2": Length shorter than recommended for a level 1 MOSFET.
Direct Newton iteration failed to find .op point.  (Use ".option noopiter" to skip.)
Starting Gmin stepping
Gmin = 10
Gmin = 1.07374
Gmin = 0.115292
Gmin = 0.0123794
Gmin = 0.00132923
Gmin = 0.000142725
Gmin = 1.5325e-005
Gmin = 1.6455e-006
Gmin = 1.76685e-007
Gmin = 1.89714e-008
Gmin = 2.03704e-009
Gmin = 2.18725e-010
Gmin = 2.34854e-011
Gmin = 2.52173e-012
Gmin = 2.70769e-013
Gmin = 0
Gmin stepping succeeded in finding the operating point.


Date: Fri May 31 06:53:16 2024
Total elapsed time: 0.230 seconds.

tnom = 27
temp = 27
method = modified trap
totiter = 3518
traniter = 2874
tranpoints = 1303
accept = 1227
rejected = 76
matrix size = 92
fillins = 55
solver = Alternate
Matrix Compiler1: 10.78 KB object code size  3.5/1.9/[1.1]
Matrix Compiler2: 10.51 KB object code size  2.8/3.2/[2.7]

