Circuit: * C:\Users\ymele\Documents\flexil-elk\elk\files\spice\Draft_Diode_1N4001.asc

Warning: Multiple definitions of model "1n750" Type: Diode
.OP point found by inspection.


Measurement "as" FAIL'ed


Date: Fri May 31 07:08:28 2024
Total elapsed time: 0.094 seconds.

tnom = 27
temp = 27
method = modified trap
totiter = 2175
traniter = 2175
tranpoints = 1088
accept = 1078
rejected = 10
matrix size = 4
fillins = 0
solver = Alternate
Matrix Compiler1: 122 bytes object code size  0.0/0.0/[0.0]
Matrix Compiler2: off  [0.1]/0.1/0.1

