Circuit: * C:\Users\ymele\Documents\flexil-elk\elk\files\spice\Draft_pnp-Transistor_als_Diode.asc

Direct Newton iteration for .op point succeeded.

Date: Fri May 31 06:41:25 2024
Total elapsed time: 0.215 seconds.

tnom = 27
temp = 27
method = modified trap
totiter = 3487
traniter = 3462
tranpoints = 1437
accept = 1314
rejected = 123
matrix size = 90
fillins = 46
solver = Alternate
Thread vector: 16.1/11.5[2] 7.8/5.0[2] 4.3/4.0[1] 1.3/2.1[1]  2592/500
Matrix Compiler1: 10.49 KB object code size  2.7/2.2/[1.1]
Matrix Compiler2: 10.16 KB object code size  1.6/1.9/[1.0]

