Circuit: * C:\Users\ymele\Documents\flexil-elk\elk\files\spice\Draft_pMos-Schaltung_auf_Spice.asc

Instance "m:m1:2": Length shorter than recommended for a level 1 MOSFET.
Direct Newton iteration failed to find .op point.  (Use ".option noopiter" to skip.)
Starting Gmin stepping
Gmin = 10
Gmin = 1.07374
Gmin = 0.115292
Gmin = 0.0123794
Gmin = 0.00132923
Gmin = 0.000142725
Gmin = 1.5325e-005
vernier = 0.5
vernier = 0.25
Gmin = 8.55108e-006
vernier = 0.333333
vernier = 0.444444
Gmin = 3.6295e-006
vernier = 0.592592
vernier = 0.790123
Gmin = 9.64496e-007
vernier = 1
Gmin = 1.28327e-007
Gmin = 1.3779e-008
Gmin = 1.47951e-009
Gmin = 1.58861e-010
Gmin = 1.70576e-011
Gmin = 1.83154e-012
Gmin = 1.9666e-013
Gmin = 0
Gmin stepping succeeded in finding the operating point.


Date: Fri May 31 08:06:09 2024
Total elapsed time: 0.258 seconds.

tnom = 27
temp = 27
method = modified trap
totiter = 4373
traniter = 3523
tranpoints = 1463
accept = 1338
rejected = 125
matrix size = 92
fillins = 55
solver = Alternate
Matrix Compiler1: 11.00 KB object code size  2.9/1.7/[1.0]
Matrix Compiler2: 10.74 KB object code size  2.6/3.6/[1.1]

