Circuit: * C:\Users\ymele\Documents\flexil-elk\elk\files\spice\Draft_npn-Transistor_als_Diode.asc

Direct Newton iteration failed to find .op point.  (Use ".option noopiter" to skip.)
Starting Gmin stepping
Gmin = 10
Gmin = 1.07374
Gmin = 0.115292
Gmin = 0.0123794
Gmin = 0.00132923
Gmin = 0.000142725
Gmin = 1.5325e-005
Gmin = 1.6455e-006
Gmin = 1.76685e-007
Gmin = 1.89714e-008
Gmin = 2.03704e-009
Gmin = 2.18725e-010
Gmin = 2.34854e-011
Gmin = 2.52173e-012
Gmin = 2.70769e-013
Gmin = 0
Gmin stepping succeeded in finding the operating point.


Date: Fri May 31 06:48:50 2024
Total elapsed time: 0.191 seconds.

tnom = 27
temp = 27
method = modified trap
totiter = 3821
traniter = 3241
tranpoints = 1361
accept = 1270
rejected = 91
matrix size = 90
fillins = 53
solver = Alternate
Thread vector: 14.2/7.8[2] 5.7/3.2[2] 5.8/5.1[2] 1.1/1.3[1]  2592/500
Matrix Compiler1: 10.65 KB object code size  2.3/1.5/[1.2]
Matrix Compiler2: 10.30 KB object code size  2.1/2.2/[0.9]

